<?xml version="1.0" encoding="UTF-8"?>

<!-- generated on 2023-12-14 13:42:27 by Eclipse SUMO GUI Version 1.12.0
-->

<configuration xmlns:xsi="http://www.w3.org/2001/XMLSchema-instance" xsi:noNamespaceSchemaLocation="http://sumo.dlr.de/xsd/sumoConfiguration.xsd">

    <input>
        <net-file value="C:\Users\h2973\Desktop\dqn\ped_intersection\ped_environment.net.xml"/>
    </input>

</configuration>
