<routes>
            <vType accel="1.0" decel="4.5" id="standard_car" length="5.0" minGap="2.5" maxSpeed="25" sigma="0.5" />
            <vType id="DEFAULT_PEDTYPE" vClass="pedestrian" color="blue"/>
            <route id="W_N" edges="W2TL TL2N"/>
            <route id="W_E" edges="W2TL TL2E"/>
            <route id="W_S" edges="W2TL TL2S"/>
            <route id="N_W" edges="N2TL TL2W"/>
            <route id="N_E" edges="N2TL TL2E"/>
            <route id="N_S" edges="N2TL TL2S"/>
            <route id="E_W" edges="E2TL TL2W"/>
            <route id="E_N" edges="E2TL TL2N"/>
            <route id="E_S" edges="E2TL TL2S"/>
            <route id="S_W" edges="S2TL TL2W"/>
            <route id="S_N" edges="S2TL TL2N"/>
            <route id="S_E" edges="S2TL TL2E"/>
    <vehicle id="N_S_0" type="standard_car" route="N_S" depart="8.0" departLane="random" departSpeed="10" />
    <person id="person_1" depart="8.0" > 
         <personTrip from="S2TL" to="TL2E"/> 
    </person>
    <vehicle id="W_E_2" type="standard_car" route="W_E" depart="66.0" departLane="random" departSpeed="10" />
    <vehicle id="E_W_3" type="standard_car" route="E_W" depart="100.0" departLane="random" departSpeed="10" />
    <vehicle id="E_W_4" type="standard_car" route="E_W" depart="119.0" departLane="random" departSpeed="10" />
    <vehicle id="E_W_5" type="standard_car" route="E_W" depart="122.0" departLane="random" departSpeed="10" />
    <person id="person_6" depart="122.0" > 
         <personTrip from="E2TL" to="TL2W"/> 
    </person>
    <vehicle id="N_S_7" type="standard_car" route="N_S" depart="146.0" departLane="random" departSpeed="10" />
    <vehicle id="E_S_8" type="standard_car" route="E_S" depart="149.0" departLane="random" departSpeed="10" />
    <vehicle id="S_E_9" type="standard_car" route="S_E" depart="149.0" departLane="random" departSpeed="10" />
    <vehicle id="E_W_10" type="standard_car" route="E_W" depart="161.0" departLane="random" departSpeed="10" />
    <vehicle id="E_W_11" type="standard_car" route="E_W" depart="169.0" departLane="random" departSpeed="10" />
    <vehicle id="E_W_12" type="standard_car" route="E_W" depart="213.0" departLane="random" departSpeed="10" />
    <vehicle id="N_S_13" type="standard_car" route="N_S" depart="214.0" departLane="random" departSpeed="10" />
    <vehicle id="N_S_14" type="standard_car" route="N_S" depart="219.0" departLane="random" departSpeed="10" />
    <vehicle id="E_W_15" type="standard_car" route="E_W" depart="222.0" departLane="random" departSpeed="10" />
    <person id="person_16" depart="225.0" > 
         <personTrip from="S2TL" to="TL2E"/> 
    </person>
    <vehicle id="W_E_17" type="standard_car" route="W_E" depart="227.0" departLane="random" departSpeed="10" />
    <vehicle id="W_E_18" type="standard_car" route="W_E" depart="243.0" departLane="random" departSpeed="10" />
    <vehicle id="E_W_19" type="standard_car" route="E_W" depart="278.0" departLane="random" departSpeed="10" />
    <vehicle id="W_S_20" type="standard_car" route="W_S" depart="279.0" departLane="random" departSpeed="10" />
    <vehicle id="W_E_21" type="standard_car" route="W_E" depart="285.0" departLane="random" departSpeed="10" />
    <person id="person_22" depart="290.0" > 
         <personTrip from="N2TL" to="TL2S"/> 
    </person>
    <vehicle id="W_E_23" type="standard_car" route="W_E" depart="300.0" departLane="random" departSpeed="10" />
    <vehicle id="W_E_24" type="standard_car" route="W_E" depart="305.0" departLane="random" departSpeed="10" />
    <vehicle id="E_W_25" type="standard_car" route="E_W" depart="305.0" departLane="random" departSpeed="10" />
    <vehicle id="E_W_26" type="standard_car" route="E_W" depart="322.0" departLane="random" departSpeed="10" />
    <vehicle id="S_W_27" type="standard_car" route="S_W" depart="324.0" departLane="random" departSpeed="10" />
    <vehicle id="E_W_28" type="standard_car" route="E_W" depart="326.0" departLane="random" departSpeed="10" />
    <vehicle id="E_W_29" type="standard_car" route="E_W" depart="326.0" departLane="random" departSpeed="10" />
    <vehicle id="N_S_30" type="standard_car" route="N_S" depart="342.0" departLane="random" departSpeed="10" />
    <vehicle id="E_W_31" type="standard_car" route="E_W" depart="347.0" departLane="random" departSpeed="10" />
    <vehicle id="E_W_32" type="standard_car" route="E_W" depart="353.0" departLane="random" departSpeed="10" />
    <vehicle id="N_S_33" type="standard_car" route="N_S" depart="355.0" departLane="random" departSpeed="10" />
    <vehicle id="N_S_34" type="standard_car" route="N_S" depart="356.0" departLane="random" departSpeed="10" />
    <vehicle id="W_E_35" type="standard_car" route="W_E" depart="361.0" departLane="random" departSpeed="10" />
    <vehicle id="N_S_36" type="standard_car" route="N_S" depart="363.0" departLane="random" departSpeed="10" />
    <vehicle id="E_W_37" type="standard_car" route="E_W" depart="364.0" departLane="random" departSpeed="10" />
    <vehicle id="W_N_38" type="standard_car" route="W_N" depart="372.0" departLane="random" departSpeed="10" />
    <vehicle id="W_E_39" type="standard_car" route="W_E" depart="372.0" departLane="random" departSpeed="10" />
    <vehicle id="E_N_40" type="standard_car" route="E_N" depart="372.0" departLane="random" departSpeed="10" />
    <vehicle id="S_N_41" type="standard_car" route="S_N" depart="373.0" departLane="random" departSpeed="10" />
    <vehicle id="N_S_42" type="standard_car" route="N_S" depart="379.0" departLane="random" departSpeed="10" />
    <vehicle id="E_W_43" type="standard_car" route="E_W" depart="380.0" departLane="random" departSpeed="10" />
    <vehicle id="S_N_44" type="standard_car" route="S_N" depart="390.0" departLane="random" departSpeed="10" />
    <vehicle id="S_W_45" type="standard_car" route="S_W" depart="394.0" departLane="random" departSpeed="10" />
    <vehicle id="W_E_46" type="standard_car" route="W_E" depart="394.0" departLane="random" departSpeed="10" />
    <vehicle id="W_E_47" type="standard_car" route="W_E" depart="400.0" departLane="random" departSpeed="10" />
    <vehicle id="W_E_48" type="standard_car" route="W_E" depart="403.0" departLane="random" departSpeed="10" />
    <vehicle id="W_E_49" type="standard_car" route="W_E" depart="404.0" departLane="random" departSpeed="10" />
    <vehicle id="E_W_50" type="standard_car" route="E_W" depart="409.0" departLane="random" departSpeed="10" />
    <vehicle id="E_N_51" type="standard_car" route="E_N" depart="410.0" departLane="random" departSpeed="10" />
    <vehicle id="W_E_52" type="standard_car" route="W_E" depart="412.0" departLane="random" departSpeed="10" />
    <vehicle id="S_N_53" type="standard_car" route="S_N" depart="414.0" departLane="random" departSpeed="10" />
    <vehicle id="N_S_54" type="standard_car" route="N_S" depart="421.0" departLane="random" departSpeed="10" />
    <vehicle id="S_W_55" type="standard_car" route="S_W" depart="422.0" departLane="random" departSpeed="10" />
    <person id="person_56" depart="427.0" > 
         <personTrip from="N2TL" to="TL2S"/> 
    </person>
    <vehicle id="W_E_57" type="standard_car" route="W_E" depart="442.0" departLane="random" departSpeed="10" />
    <vehicle id="N_W_58" type="standard_car" route="N_W" depart="443.0" departLane="random" departSpeed="10" />
    <vehicle id="W_E_59" type="standard_car" route="W_E" depart="449.0" departLane="random" departSpeed="10" />
    <vehicle id="N_S_60" type="standard_car" route="N_S" depart="459.0" departLane="random" departSpeed="10" />
    <vehicle id="S_N_61" type="standard_car" route="S_N" depart="461.0" departLane="random" departSpeed="10" />
    <vehicle id="W_E_62" type="standard_car" route="W_E" depart="463.0" departLane="random" departSpeed="10" />
    <vehicle id="E_W_63" type="standard_car" route="E_W" depart="469.0" departLane="random" departSpeed="10" />
    <person id="person_64" depart="470.0" > 
         <personTrip from="N2TL" to="TL2S"/> 
    </person>
    <vehicle id="W_E_65" type="standard_car" route="W_E" depart="472.0" departLane="random" departSpeed="10" />
    <vehicle id="E_W_66" type="standard_car" route="E_W" depart="480.0" departLane="random" departSpeed="10" />
    <vehicle id="S_N_67" type="standard_car" route="S_N" depart="494.0" departLane="random" departSpeed="10" />
    <vehicle id="W_S_68" type="standard_car" route="W_S" depart="495.0" departLane="random" departSpeed="10" />
    <vehicle id="S_N_69" type="standard_car" route="S_N" depart="502.0" departLane="random" departSpeed="10" />
    <vehicle id="E_S_70" type="standard_car" route="E_S" depart="505.0" departLane="random" departSpeed="10" />
    <person id="person_71" depart="507.0" > 
         <personTrip from="E2TL" to="TL2W"/> 
    </person>
    <vehicle id="E_W_72" type="standard_car" route="E_W" depart="508.0" departLane="random" departSpeed="10" />
    <person id="person_73" depart="509.0" > 
         <personTrip from="W2TL" to="TL2E"/> 
    </person>
    <vehicle id="E_W_74" type="standard_car" route="E_W" depart="509.0" departLane="random" departSpeed="10" />
    <person id="person_75" depart="510.0" > 
         <personTrip from="N2TL" to="TL2S"/> 
    </person>
    <vehicle id="N_S_76" type="standard_car" route="N_S" depart="512.0" departLane="random" departSpeed="10" />
    <vehicle id="E_W_77" type="standard_car" route="E_W" depart="515.0" departLane="random" departSpeed="10" />
    <vehicle id="S_W_78" type="standard_car" route="S_W" depart="517.0" departLane="random" departSpeed="10" />
    <vehicle id="W_E_79" type="standard_car" route="W_E" depart="518.0" departLane="random" departSpeed="10" />
    <person id="person_80" depart="531.0" > 
         <personTrip from="W2TL" to="TL2E"/> 
    </person>
    <vehicle id="S_N_81" type="standard_car" route="S_N" depart="532.0" departLane="random" departSpeed="10" />
    <person id="person_82" depart="533.0" > 
         <personTrip from="N2TL" to="TL2S"/> 
    </person>
    <vehicle id="E_W_83" type="standard_car" route="E_W" depart="539.0" departLane="random" departSpeed="10" />
    <vehicle id="S_W_84" type="standard_car" route="S_W" depart="541.0" departLane="random" departSpeed="10" />
    <vehicle id="S_N_85" type="standard_car" route="S_N" depart="542.0" departLane="random" departSpeed="10" />
    <vehicle id="S_N_86" type="standard_car" route="S_N" depart="548.0" departLane="random" departSpeed="10" />
    <person id="person_87" depart="551.0" > 
         <personTrip from="S2TL" to="TL2N"/> 
    </person>
    <vehicle id="S_N_88" type="standard_car" route="S_N" depart="551.0" departLane="random" departSpeed="10" />
    <vehicle id="E_W_89" type="standard_car" route="E_W" depart="552.0" departLane="random" departSpeed="10" />
    <vehicle id="N_E_90" type="standard_car" route="N_E" depart="561.0" departLane="random" departSpeed="10" />
    <vehicle id="S_N_91" type="standard_car" route="S_N" depart="564.0" departLane="random" departSpeed="10" />
    <vehicle id="N_S_92" type="standard_car" route="N_S" depart="567.0" departLane="random" departSpeed="10" />
    <vehicle id="S_N_93" type="standard_car" route="S_N" depart="569.0" departLane="random" departSpeed="10" />
    <vehicle id="W_E_94" type="standard_car" route="W_E" depart="571.0" departLane="random" departSpeed="10" />
    <vehicle id="E_W_95" type="standard_car" route="E_W" depart="575.0" departLane="random" departSpeed="10" />
    <vehicle id="W_E_96" type="standard_car" route="W_E" depart="575.0" departLane="random" departSpeed="10" />
    <vehicle id="W_E_97" type="standard_car" route="W_E" depart="581.0" departLane="random" departSpeed="10" />
    <vehicle id="E_W_98" type="standard_car" route="E_W" depart="582.0" departLane="random" departSpeed="10" />
    <person id="person_99" depart="585.0" > 
         <personTrip from="W2TL" to="TL2E"/> 
    </person>
    <vehicle id="E_W_100" type="standard_car" route="E_W" depart="588.0" departLane="random" departSpeed="10" />
    <vehicle id="N_S_101" type="standard_car" route="N_S" depart="588.0" departLane="random" departSpeed="10" />
    <vehicle id="W_E_102" type="standard_car" route="W_E" depart="589.0" departLane="random" departSpeed="10" />
    <person id="person_103" depart="595.0" > 
         <personTrip from="S2TL" to="TL2N"/> 
    </person>
    <vehicle id="N_S_104" type="standard_car" route="N_S" depart="596.0" departLane="random" departSpeed="10" />
    <vehicle id="E_W_105" type="standard_car" route="E_W" depart="597.0" departLane="random" departSpeed="10" />
    <vehicle id="N_S_106" type="standard_car" route="N_S" depart="599.0" departLane="random" departSpeed="10" />
    <vehicle id="N_S_107" type="standard_car" route="N_S" depart="601.0" departLane="random" departSpeed="10" />
    <person id="person_108" depart="602.0" > 
         <personTrip from="S2TL" to="TL2N"/> 
    </person>
    <vehicle id="N_W_109" type="standard_car" route="N_W" depart="602.0" departLane="random" departSpeed="10" />
    <person id="person_110" depart="602.0" > 
         <personTrip from="W2TL" to="TL2S"/> 
    </person>
    <vehicle id="E_W_111" type="standard_car" route="E_W" depart="604.0" departLane="random" departSpeed="10" />
    <vehicle id="E_W_112" type="standard_car" route="E_W" depart="606.0" departLane="random" departSpeed="10" />
    <person id="person_113" depart="611.0" > 
         <personTrip from="W2TL" to="TL2E"/> 
    </person>
    <vehicle id="E_W_114" type="standard_car" route="E_W" depart="612.0" departLane="random" departSpeed="10" />
    <person id="person_115" depart="612.0" > 
         <personTrip from="W2TL" to="TL2E"/> 
    </person>
    <vehicle id="E_W_116" type="standard_car" route="E_W" depart="614.0" departLane="random" departSpeed="10" />
    <vehicle id="S_N_117" type="standard_car" route="S_N" depart="615.0" departLane="random" departSpeed="10" />
    <vehicle id="S_N_118" type="standard_car" route="S_N" depart="619.0" departLane="random" departSpeed="10" />
    <vehicle id="S_N_119" type="standard_car" route="S_N" depart="622.0" departLane="random" departSpeed="10" />
    <vehicle id="S_N_120" type="standard_car" route="S_N" depart="622.0" departLane="random" departSpeed="10" />
    <vehicle id="S_N_121" type="standard_car" route="S_N" depart="626.0" departLane="random" departSpeed="10" />
    <vehicle id="E_W_122" type="standard_car" route="E_W" depart="627.0" departLane="random" departSpeed="10" />
    <person id="person_123" depart="631.0" > 
         <personTrip from="E2TL" to="TL2N"/> 
    </person>
    <vehicle id="W_E_124" type="standard_car" route="W_E" depart="640.0" departLane="random" departSpeed="10" />
    <person id="person_125" depart="642.0" > 
         <personTrip from="N2TL" to="TL2S"/> 
    </person>
    <vehicle id="E_W_126" type="standard_car" route="E_W" depart="643.0" departLane="random" departSpeed="10" />
    <vehicle id="E_W_127" type="standard_car" route="E_W" depart="647.0" departLane="random" departSpeed="10" />
    <person id="person_128" depart="647.0" > 
         <personTrip from="S2TL" to="TL2E"/> 
    </person>
    <vehicle id="S_N_129" type="standard_car" route="S_N" depart="647.0" departLane="random" departSpeed="10" />
    <vehicle id="N_S_130" type="standard_car" route="N_S" depart="652.0" departLane="random" departSpeed="10" />
    <vehicle id="N_S_131" type="standard_car" route="N_S" depart="656.0" departLane="random" departSpeed="10" />
    <vehicle id="S_N_132" type="standard_car" route="S_N" depart="659.0" departLane="random" departSpeed="10" />
    <vehicle id="N_S_133" type="standard_car" route="N_S" depart="663.0" departLane="random" departSpeed="10" />
    <person id="person_134" depart="664.0" > 
         <personTrip from="N2TL" to="TL2S"/> 
    </person>
    <person id="person_135" depart="665.0" > 
         <personTrip from="N2TL" to="TL2S"/> 
    </person>
    <person id="person_136" depart="666.0" > 
         <personTrip from="S2TL" to="TL2N"/> 
    </person>
    <vehicle id="E_W_137" type="standard_car" route="E_W" depart="669.0" departLane="random" departSpeed="10" />
    <vehicle id="N_S_138" type="standard_car" route="N_S" depart="678.0" departLane="random" departSpeed="10" />
    <vehicle id="E_W_139" type="standard_car" route="E_W" depart="678.0" departLane="random" departSpeed="10" />
    <vehicle id="S_N_140" type="standard_car" route="S_N" depart="679.0" departLane="random" departSpeed="10" />
    <vehicle id="S_N_141" type="standard_car" route="S_N" depart="680.0" departLane="random" departSpeed="10" />
    <vehicle id="S_N_142" type="standard_car" route="S_N" depart="680.0" departLane="random" departSpeed="10" />
    <person id="person_143" depart="681.0" > 
         <personTrip from="W2TL" to="TL2E"/> 
    </person>
    <vehicle id="S_N_144" type="standard_car" route="S_N" depart="681.0" departLane="random" departSpeed="10" />
    <vehicle id="S_N_145" type="standard_car" route="S_N" depart="684.0" departLane="random" departSpeed="10" />
    <vehicle id="W_E_146" type="standard_car" route="W_E" depart="684.0" departLane="random" departSpeed="10" />
    <vehicle id="N_S_147" type="standard_car" route="N_S" depart="686.0" departLane="random" departSpeed="10" />
    <vehicle id="W_N_148" type="standard_car" route="W_N" depart="686.0" departLane="random" departSpeed="10" />
    <vehicle id="W_N_149" type="standard_car" route="W_N" depart="687.0" departLane="random" departSpeed="10" />
    <vehicle id="W_E_150" type="standard_car" route="W_E" depart="687.0" departLane="random" departSpeed="10" />
    <vehicle id="W_S_151" type="standard_car" route="W_S" depart="695.0" departLane="random" departSpeed="10" />
    <vehicle id="W_E_152" type="standard_car" route="W_E" depart="707.0" departLane="random" departSpeed="10" />
    <vehicle id="N_S_153" type="standard_car" route="N_S" depart="710.0" departLane="random" departSpeed="10" />
    <person id="person_154" depart="710.0" > 
         <personTrip from="E2TL" to="TL2W"/> 
    </person>
    <vehicle id="S_E_155" type="standard_car" route="S_E" depart="713.0" departLane="random" departSpeed="10" />
    <vehicle id="W_E_156" type="standard_car" route="W_E" depart="715.0" departLane="random" departSpeed="10" />
    <vehicle id="N_W_157" type="standard_car" route="N_W" depart="715.0" departLane="random" departSpeed="10" />
    <vehicle id="S_N_158" type="standard_car" route="S_N" depart="716.0" departLane="random" departSpeed="10" />
    <vehicle id="E_S_159" type="standard_car" route="E_S" depart="717.0" departLane="random" departSpeed="10" />
    <vehicle id="N_S_160" type="standard_car" route="N_S" depart="717.0" departLane="random" departSpeed="10" />
    <vehicle id="E_W_161" type="standard_car" route="E_W" depart="718.0" departLane="random" departSpeed="10" />
    <vehicle id="W_E_162" type="standard_car" route="W_E" depart="722.0" departLane="random" departSpeed="10" />
    <vehicle id="W_E_163" type="standard_car" route="W_E" depart="725.0" departLane="random" departSpeed="10" />
    <vehicle id="N_W_164" type="standard_car" route="N_W" depart="725.0" departLane="random" departSpeed="10" />
    <vehicle id="N_S_165" type="standard_car" route="N_S" depart="729.0" departLane="random" departSpeed="10" />
    <vehicle id="W_E_166" type="standard_car" route="W_E" depart="731.0" departLane="random" departSpeed="10" />
    <person id="person_167" depart="731.0" > 
         <personTrip from="E2TL" to="TL2S"/> 
    </person>
    <person id="person_168" depart="734.0" > 
         <personTrip from="E2TL" to="TL2W"/> 
    </person>
    <vehicle id="W_S_169" type="standard_car" route="W_S" depart="734.0" departLane="random" departSpeed="10" />
    <vehicle id="W_E_170" type="standard_car" route="W_E" depart="735.0" departLane="random" departSpeed="10" />
    <vehicle id="S_N_171" type="standard_car" route="S_N" depart="736.0" departLane="random" departSpeed="10" />
    <vehicle id="W_E_172" type="standard_car" route="W_E" depart="737.0" departLane="random" departSpeed="10" />
    <vehicle id="W_E_173" type="standard_car" route="W_E" depart="738.0" departLane="random" departSpeed="10" />
    <vehicle id="W_N_174" type="standard_car" route="W_N" depart="746.0" departLane="random" departSpeed="10" />
    <vehicle id="S_N_175" type="standard_car" route="S_N" depart="747.0" departLane="random" departSpeed="10" />
    <vehicle id="S_N_176" type="standard_car" route="S_N" depart="748.0" departLane="random" departSpeed="10" />
    <vehicle id="S_N_177" type="standard_car" route="S_N" depart="750.0" departLane="random" departSpeed="10" />
    <vehicle id="S_E_178" type="standard_car" route="S_E" depart="752.0" departLane="random" departSpeed="10" />
    <vehicle id="E_W_179" type="standard_car" route="E_W" depart="754.0" departLane="random" departSpeed="10" />
    <vehicle id="N_S_180" type="standard_car" route="N_S" depart="755.0" departLane="random" departSpeed="10" />
    <person id="person_181" depart="757.0" > 
         <personTrip from="E2TL" to="TL2W"/> 
    </person>
    <vehicle id="E_W_182" type="standard_car" route="E_W" depart="757.0" departLane="random" departSpeed="10" />
    <person id="person_183" depart="757.0" > 
         <personTrip from="E2TL" to="TL2W"/> 
    </person>
    <person id="person_184" depart="758.0" > 
         <personTrip from="W2TL" to="TL2E"/> 
    </person>
    <vehicle id="W_N_185" type="standard_car" route="W_N" depart="760.0" departLane="random" departSpeed="10" />
    <vehicle id="N_S_186" type="standard_car" route="N_S" depart="760.0" departLane="random" departSpeed="10" />
    <vehicle id="W_E_187" type="standard_car" route="W_E" depart="763.0" departLane="random" departSpeed="10" />
    <vehicle id="W_E_188" type="standard_car" route="W_E" depart="765.0" departLane="random" departSpeed="10" />
    <vehicle id="W_E_189" type="standard_car" route="W_E" depart="766.0" departLane="random" departSpeed="10" />
    <vehicle id="N_W_190" type="standard_car" route="N_W" depart="767.0" departLane="random" departSpeed="10" />
    <vehicle id="E_W_191" type="standard_car" route="E_W" depart="767.0" departLane="random" departSpeed="10" />
    <vehicle id="E_W_192" type="standard_car" route="E_W" depart="768.0" departLane="random" departSpeed="10" />
    <vehicle id="N_S_193" type="standard_car" route="N_S" depart="771.0" departLane="random" departSpeed="10" />
    <vehicle id="W_E_194" type="standard_car" route="W_E" depart="772.0" departLane="random" departSpeed="10" />
    <vehicle id="E_W_195" type="standard_car" route="E_W" depart="777.0" departLane="random" departSpeed="10" />
    <person id="person_196" depart="779.0" > 
         <personTrip from="E2TL" to="TL2S"/> 
    </person>
    <vehicle id="W_E_197" type="standard_car" route="W_E" depart="784.0" departLane="random" departSpeed="10" />
    <person id="person_198" depart="786.0" > 
         <personTrip from="N2TL" to="TL2S"/> 
    </person>
    <vehicle id="N_S_199" type="standard_car" route="N_S" depart="787.0" departLane="random" departSpeed="10" />
    <vehicle id="W_N_200" type="standard_car" route="W_N" depart="787.0" departLane="random" departSpeed="10" />
    <vehicle id="W_E_201" type="standard_car" route="W_E" depart="791.0" departLane="random" departSpeed="10" />
    <vehicle id="N_S_202" type="standard_car" route="N_S" depart="791.0" departLane="random" departSpeed="10" />
    <person id="person_203" depart="791.0" > 
         <personTrip from="E2TL" to="TL2W"/> 
    </person>
    <vehicle id="S_N_204" type="standard_car" route="S_N" depart="791.0" departLane="random" departSpeed="10" />
    <person id="person_205" depart="794.0" > 
         <personTrip from="N2TL" to="TL2S"/> 
    </person>
    <person id="person_206" depart="803.0" > 
         <personTrip from="W2TL" to="TL2E"/> 
    </person>
    <vehicle id="S_W_207" type="standard_car" route="S_W" depart="805.0" departLane="random" departSpeed="10" />
    <vehicle id="W_E_208" type="standard_car" route="W_E" depart="808.0" departLane="random" departSpeed="10" />
    <vehicle id="N_S_209" type="standard_car" route="N_S" depart="814.0" departLane="random" departSpeed="10" />
    <vehicle id="W_S_210" type="standard_car" route="W_S" depart="815.0" departLane="random" departSpeed="10" />
    <vehicle id="N_E_211" type="standard_car" route="N_E" depart="819.0" departLane="random" departSpeed="10" />
    <vehicle id="N_E_212" type="standard_car" route="N_E" depart="820.0" departLane="random" departSpeed="10" />
    <vehicle id="W_E_213" type="standard_car" route="W_E" depart="826.0" departLane="random" departSpeed="10" />
    <vehicle id="S_N_214" type="standard_car" route="S_N" depart="826.0" departLane="random" departSpeed="10" />
    <vehicle id="S_E_215" type="standard_car" route="S_E" depart="828.0" departLane="random" departSpeed="10" />
    <vehicle id="S_E_216" type="standard_car" route="S_E" depart="829.0" departLane="random" departSpeed="10" />
    <vehicle id="E_W_217" type="standard_car" route="E_W" depart="830.0" departLane="random" departSpeed="10" />
    <vehicle id="E_W_218" type="standard_car" route="E_W" depart="832.0" departLane="random" departSpeed="10" />
    <person id="person_219" depart="834.0" > 
         <personTrip from="N2TL" to="TL2W" departSpeed="10" /> 
    </person>
    <vehicle id="E_W_220" type="standard_car" route="E_W" depart="834.0" departLane="random" departSpeed="10" />
    <vehicle id="E_W_221" type="standard_car" route="E_W" depart="839.0" departLane="random" departSpeed="10" />
    <vehicle id="N_W_222" type="standard_car" route="N_W" depart="846.0" departLane="random" departSpeed="10" />
    <person id="person_223" depart="846.0" > 
         <personTrip from="N2TL" to="TL2S"/> 
    </person>
    <person id="person_224" depart="848.0" > 
         <personTrip from="E2TL" to="TL2W"/> 
    </person>
    <vehicle id="S_N_225" type="standard_car" route="S_N" depart="849.0" departLane="random" departSpeed="10" />
    <vehicle id="S_N_226" type="standard_car" route="S_N" depart="852.0" departLane="random" departSpeed="10" />
    <vehicle id="S_N_227" type="standard_car" route="S_N" depart="853.0" departLane="random" departSpeed="10" />
    <person id="person_228" depart="859.0" > 
         <personTrip from="E2TL" to="TL2W"/> 
    </person>
    <vehicle id="N_S_229" type="standard_car" route="N_S" depart="861.0" departLane="random" departSpeed="10" />
    <vehicle id="W_E_230" type="standard_car" route="W_E" depart="862.0" departLane="random" departSpeed="10" />
    <person id="person_231" depart="862.0" > 
         <personTrip from="N2TL" to="TL2W" departSpeed="10" /> 
    </person>
    <person id="person_232" depart="863.0" > 
         <personTrip from="E2TL" to="TL2S"/> 
    </person>
    <person id="person_233" depart="863.0" > 
         <personTrip from="S2TL" to="TL2W"/> 
    </person>
    <vehicle id="N_S_234" type="standard_car" route="N_S" depart="865.0" departLane="random" departSpeed="10" />
    <vehicle id="W_E_235" type="standard_car" route="W_E" depart="868.0" departLane="random" departSpeed="10" />
    <person id="person_236" depart="869.0" > 
         <personTrip from="W2TL" to="TL2E"/> 
    </person>
    <vehicle id="S_N_237" type="standard_car" route="S_N" depart="869.0" departLane="random" departSpeed="10" />
    <vehicle id="N_S_238" type="standard_car" route="N_S" depart="870.0" departLane="random" departSpeed="10" />
    <person id="person_239" depart="871.0" > 
         <personTrip from="S2TL" to="TL2N"/> 
    </person>
    <vehicle id="W_E_240" type="standard_car" route="W_E" depart="878.0" departLane="random" departSpeed="10" />
    <vehicle id="E_W_241" type="standard_car" route="E_W" depart="878.0" departLane="random" departSpeed="10" />
    <vehicle id="N_S_242" type="standard_car" route="N_S" depart="879.0" departLane="random" departSpeed="10" />
    <person id="person_243" depart="879.0" > 
         <personTrip from="N2TL" to="TL2S"/> 
    </person>
    <vehicle id="S_N_244" type="standard_car" route="S_N" depart="882.0" departLane="random" departSpeed="10" />
    <vehicle id="W_E_245" type="standard_car" route="W_E" depart="889.0" departLane="random" departSpeed="10" />
    <vehicle id="E_W_246" type="standard_car" route="E_W" depart="889.0" departLane="random" departSpeed="10" />
    <vehicle id="W_E_247" type="standard_car" route="W_E" depart="891.0" departLane="random" departSpeed="10" />
    <vehicle id="E_W_248" type="standard_car" route="E_W" depart="893.0" departLane="random" departSpeed="10" />
    <vehicle id="E_W_249" type="standard_car" route="E_W" depart="894.0" departLane="random" departSpeed="10" />
    <vehicle id="S_N_250" type="standard_car" route="S_N" depart="901.0" departLane="random" departSpeed="10" />
    <vehicle id="W_E_251" type="standard_car" route="W_E" depart="902.0" departLane="random" departSpeed="10" />
    <vehicle id="N_S_252" type="standard_car" route="N_S" depart="902.0" departLane="random" departSpeed="10" />
    <vehicle id="S_E_253" type="standard_car" route="S_E" depart="902.0" departLane="random" departSpeed="10" />
    <person id="person_254" depart="904.0" > 
         <personTrip from="E2TL" to="TL2W"/> 
    </person>
    <vehicle id="N_S_255" type="standard_car" route="N_S" depart="904.0" departLane="random" departSpeed="10" />
    <vehicle id="N_E_256" type="standard_car" route="N_E" depart="916.0" departLane="random" departSpeed="10" />
    <person id="person_257" depart="920.0" > 
         <personTrip from="W2TL" to="TL2E"/> 
    </person>
    <vehicle id="S_E_258" type="standard_car" route="S_E" depart="922.0" departLane="random" departSpeed="10" />